<?xml version="1.0" encoding="UTF-8"?>

<!-- generated on 2024-02-07 18:30:10 by Eclipse SUMO netedit Version 1.19.0
<configuration xmlns:xsi="http://www.w3.org/2001/XMLSchema-instance" xsi:noNamespaceSchemaLocation="http://sumo.dlr.de/xsd/neteditConfiguration.xsd">

    <input>
        <sumocfg-file value="C:\Users\josem\Desktop\guardado1.sumocfg"/>
        <additional-files value="C:\Users\josem\Desktop\../2024-02-07-18-09-43/osm.poly.xml.gz"/>
        <route-files value="C:\Users\josem\Desktop\../2024-02-07-18-09-43/osm.passenger.trips.xml"/>
        <sumo-net-file value="C:\Users\josem\Desktop\hola.net.xml"/>
    </input>

    <output>
        <output-file value="C:\Users\josem\Desktop\hola.net.xml"/>
        <output.street-names value="true"/>
    </output>

    <processing>
        <geometry.min-radius.fix.railways value="false"/>
        <geometry.max-grade.fix value="false"/>
        <offset.disable-normalization value="true"/>
        <lefthand value="0"/>
    </processing>

    <junctions>
        <no-turnarounds value="true"/>
        <junctions.corner-detail value="5"/>
        <junctions.limit-turn-speed value="5.50"/>
        <rectangular-lane-cut value="0"/>
    </junctions>

    <pedestrian>
        <walkingareas value="0"/>
    </pedestrian>

</configuration>
-->

<net version="1.16" junctionCornerDetail="5" limitTurnSpeed="5.50" xmlns:xsi="http://www.w3.org/2001/XMLSchema-instance" xsi:noNamespaceSchemaLocation="http://sumo.dlr.de/xsd/net_file.xsd">

    <location netOffset="-365936.28,-4064126.21" convBoundary="0.00,0.00,4598.67,1246.86" origBoundary="-4.501198,36.713716,-4.449695,36.724987" projParameter="+proj=utm +zone=30 +ellps=WGS84 +datum=WGS84 +units=m +no_defs"/>

    <type id="highway.cycleway" priority="1" numLanes="1" speed="5.56" allow="bicycle" oneway="0" width="2.00"/>
    <type id="highway.footway" priority="1" numLanes="1" speed="2.78" allow="pedestrian" oneway="1" width="2.00"/>
    <type id="highway.living_street" priority="2" numLanes="1" speed="2.78" disallow="tram rail_urban rail rail_electric rail_fast ship" oneway="0"/>
    <type id="highway.path" priority="1" numLanes="1" speed="5.56" allow="pedestrian bicycle" oneway="0" width="2.00"/>
    <type id="highway.pedestrian" priority="1" numLanes="1" speed="2.78" allow="pedestrian" oneway="1" width="2.00"/>
    <type id="highway.primary" priority="12" numLanes="2" speed="27.78" disallow="tram rail_urban rail rail_electric rail_fast ship" oneway="0"/>
    <type id="highway.residential" priority="3" numLanes="1" speed="13.89" disallow="tram rail_urban rail rail_electric rail_fast ship" oneway="0"/>
    <type id="highway.secondary" priority="11" numLanes="1" speed="27.78" disallow="tram rail_urban rail rail_electric rail_fast ship" oneway="0"/>
    <type id="highway.service" priority="1" numLanes="1" speed="5.56" allow="pedestrian delivery bicycle" oneway="0"/>
    <type id="highway.steps" priority="1" numLanes="1" speed="1.39" allow="pedestrian" oneway="1" width="2.00"/>
    <type id="highway.tertiary" priority="10" numLanes="1" speed="22.22" disallow="tram rail_urban rail rail_electric rail_fast ship" oneway="0"/>
    <type id="highway.tertiary_link" priority="5" numLanes="1" speed="22.22" disallow="tram rail_urban rail rail_electric rail_fast ship" oneway="0"/>
    <type id="railway.light_rail" priority="19" numLanes="1" speed="27.78" allow="rail_urban" oneway="1"/>

    <edge id=":10205052439_0" function="internal">
        <lane id=":10205052439_0_0" index="0" disallow="tram rail_urban rail rail_electric rail_fast ship" speed="8.80" length="8.48" shape="1654.20,366.78 1653.55,368.73 1653.41,370.74 1653.75,372.82 1654.59,374.96"/>
    </edge>
    <edge id=":10205052439_1" function="internal">
        <lane id=":10205052439_1_0" index="0" disallow="tram rail_urban rail rail_electric rail_fast ship" speed="13.89" length="8.75" shape="1649.50,367.24 1651.15,369.44 1652.29,370.95 1653.31,372.53 1654.59,374.96"/>
        <lane id=":10205052439_1_1" index="1" disallow="tram rail_urban rail rail_electric rail_fast ship" speed="13.89" length="8.75" shape="1646.91,369.12 1648.47,371.20 1649.55,372.62 1650.52,374.11 1651.73,376.39"/>
        <lane id=":10205052439_1_2" index="2" disallow="tram rail_urban rail rail_electric rail_fast ship" speed="13.89" length="8.75" shape="1644.32,371.00 1645.79,372.95 1646.81,374.28 1647.73,375.68 1648.87,377.83"/>
    </edge>
    <edge id=":1039213972_0" function="internal">
        <lane id=":1039213972_0_0" index="0" disallow="tram rail_urban rail rail_electric rail_fast ship" speed="7.93" length="7.93" shape="1687.30,587.45 1686.78,585.28 1685.90,583.51 1684.66,582.13 1683.06,581.15"/>
        <lane id=":1039213972_0_1" index="1" disallow="tram rail_urban rail rail_electric rail_fast ship" speed="8.78" length="9.85" shape="1687.30,587.45 1686.65,583.70 1685.95,580.91 1685.19,579.09 1684.36,578.23"/>
    </edge>
    <edge id=":1039213972_2" function="internal">
        <lane id=":1039213972_2_0" index="0" disallow="tram rail_urban rail rail_electric rail_fast ship" speed="7.92" length="9.75" shape="1687.30,587.45 1687.06,584.40 1687.32,581.95 1688.07,580.09 1689.32,578.82"/>
        <lane id=":1039213972_2_1" index="1" disallow="tram rail_urban rail rail_electric rail_fast ship" speed="7.01" length="9.75" shape="1690.94,587.83 1690.18,585.59 1690.49,583.44 1691.88,581.37 1694.34,579.38"/>
    </edge>
    <edge id=":1039214148_0" function="internal">
        <lane id=":1039214148_0_0" index="0" disallow="tram rail_urban rail rail_electric rail_fast ship" speed="9.63" length="5.78" shape="1477.85,720.71 1476.20,720.24 1475.01,719.97 1473.84,720.01 1472.25,720.51"/>
    </edge>
    <edge id=":1039214148_1" function="internal">
        <lane id=":1039214148_1_0" index="0" disallow="tram rail_urban rail rail_electric rail_fast ship" speed="9.89" length="5.70" shape="1476.73,716.45 1475.74,718.00 1474.94,719.02 1473.91,719.77 1472.25,720.51"/>
        <lane id=":1039214148_1_1" index="1" disallow="tram rail_urban rail rail_electric rail_fast ship" speed="9.07" length="5.70" shape="1474.56,713.91 1473.77,715.24 1473.19,716.17 1472.42,716.87 1471.08,717.53"/>
    </edge>
    <edge id=":1039214152_0" function="internal">
        <lane id=":1039214152_0_0" index="0" disallow="tram rail_urban rail rail_electric rail_fast ship" speed="10.36" length="10.06" shape="1694.20,599.86 1693.72,597.40 1692.77,595.16 1691.34,593.12 1689.45,591.30"/>
    </edge>
    <edge id=":1039214152_1" function="internal">
        <lane id=":1039214152_1_0" index="0" disallow="tram rail_urban rail rail_electric rail_fast ship" speed="7.14" length="7.69" shape="1700.27,592.92 1698.84,594.01 1697.88,595.48 1697.39,597.33 1697.39,599.56"/>
    </edge>
    <edge id=":1039214152_2" function="internal">
        <lane id=":1039214152_2_0" index="0" disallow="tram rail_urban rail rail_electric rail_fast ship" speed="8.64" length="9.59" shape="1700.27,592.92 1697.62,593.89 1694.93,593.94 1692.21,593.08 1689.45,591.30"/>
        <lane id=":1039214152_2_1" index="1" disallow="tram rail_urban rail rail_electric rail_fast ship" speed="6.14" length="9.59" shape="1697.54,589.47 1695.48,590.19 1693.70,590.17 1692.21,589.42 1691.01,587.95"/>
    </edge>
    <edge id=":1039214202_0" function="internal">
        <lane id=":1039214202_0_0" index="0" disallow="tram rail_urban rail rail_electric rail_fast ship" speed="8.91" length="8.05" shape="1480.60,683.64 1479.67,686.19 1479.16,688.33 1479.08,690.08 1479.42,691.42"/>
        <lane id=":1039214202_0_1" index="1" disallow="tram rail_urban rail rail_electric rail_fast ship" speed="10.23" length="10.75" shape="1477.65,682.41 1476.51,685.62 1475.95,688.43 1475.96,690.83 1476.55,692.83"/>
    </edge>
    <edge id=":1039214202_2" function="internal">
        <lane id=":1039214202_2_0" index="0" disallow="tram rail_urban rail rail_electric rail_fast ship" speed="14.76" length="9.98" shape="1472.86,683.52 1475.38,685.29 1476.90,686.80 1478.05,688.64 1479.42,691.42"/>
        <lane id=":1039214202_2_1" index="1" disallow="tram rail_urban rail rail_electric rail_fast ship" speed="14.03" length="9.98" shape="1470.51,685.80 1472.80,687.39 1474.21,688.71 1475.29,690.33 1476.55,692.83"/>
    </edge>
    <edge id=":1039214216_0" function="internal">
        <lane id=":1039214216_0_0" index="0" disallow="tram rail_urban rail rail_electric rail_fast ship" speed="19.45" length="12.52" shape="1577.93,541.73 1574.33,541.70 1571.85,541.57 1569.41,541.76 1565.97,542.63"/>
        <lane id=":1039214216_0_1" index="1" disallow="tram rail_urban rail rail_electric rail_fast ship" speed="19.45" length="12.52" shape="1577.83,538.54 1573.98,538.51 1571.31,538.41 1568.69,538.63 1565.01,539.58"/>
    </edge>
    <edge id=":1039214216_2" function="internal">
        <lane id=":1039214216_2_0" index="0" disallow="tram rail_urban rail rail_electric rail_fast ship" speed="12.34" length="12.73" shape="1575.93,534.46 1573.93,537.85 1572.09,539.94 1569.68,541.33 1565.97,542.63"/>
        <lane id=":1039214216_2_1" index="1" disallow="tram rail_urban rail rail_electric rail_fast ship" speed="11.69" length="12.73" shape="1573.66,531.96 1571.91,535.04 1570.35,537.01 1568.29,538.37 1565.01,539.58"/>
    </edge>
    <edge id=":1039214268_0" function="internal">
        <lane id=":1039214268_0_0" index="0" disallow="tram rail_urban rail rail_electric rail_fast ship" speed="10.03" length="8.40" shape="1457.80,724.13 1455.39,724.36 1453.81,724.99 1452.43,726.12 1450.66,727.88"/>
        <lane id=":1039214268_0_1" index="1" disallow="tram rail_urban rail rail_electric rail_fast ship" speed="10.86" length="9.92" shape="1457.80,724.13 1454.82,723.94 1452.63,723.66 1450.68,723.97 1448.44,725.57"/>
    </edge>
    <edge id=":1039214268_2" function="internal">
        <lane id=":1039214268_2_0" index="0" disallow="tram rail_urban rail rail_electric rail_fast ship" speed="18.54" length="10.44" shape="1457.80,724.13 1454.63,723.96 1452.52,723.28 1450.50,722.18 1447.59,720.71"/>
        <lane id=":1039214268_2_1" index="1" disallow="tram rail_urban rail rail_electric rail_fast ship" speed="10.79" length="10.44" shape="1458.38,720.92 1455.45,720.96 1453.39,720.71 1451.55,719.85 1449.29,718.05"/>
    </edge>
    <edge id=":1039214320_0" function="internal">
        <lane id=":1039214320_0_0" index="0" disallow="tram rail_urban rail rail_electric rail_fast ship" speed="8.91" length="7.83" shape="1708.02,592.15 1706.12,591.68 1704.22,591.64 1702.33,592.02 1700.45,592.83"/>
        <lane id=":1039214320_0_1" index="1" disallow="tram rail_urban rail rail_electric rail_fast ship" speed="11.19" length="11.67" shape="1709.09,589.13 1706.02,588.31 1703.11,588.08 1700.34,588.44 1697.72,589.39"/>
    </edge>
    <edge id=":1039214320_2" function="internal">
        <lane id=":1039214320_2_0" index="0" disallow="tram rail_urban rail rail_electric rail_fast ship" speed="16.66" length="12.31" shape="1700.39,577.26 1711.22,583.10"/>
        <lane id=":1039214320_2_1" index="1" disallow="tram rail_urban rail rail_electric rail_fast ship" speed="16.66" length="13.44" shape="1700.39,577.26 1703.57,579.49 1705.19,581.89 1706.85,584.19 1710.16,586.11"/>
    </edge>
    <edge id=":1039214320_4" function="internal">
        <lane id=":1039214320_4_0" index="0" disallow="tram rail_urban rail rail_electric rail_fast ship" speed="8.27" length="21.97" shape="1700.39,577.26 1706.27,580.91 1708.24,584.72 1706.30,588.69 1700.45,592.83"/>
        <lane id=":1039214320_4_1" index="1" disallow="tram rail_urban rail rail_electric rail_fast ship" speed="7.36" length="21.97" shape="1696.75,579.40 1703.63,580.63 1706.09,582.70 1704.12,585.62 1697.72,589.39"/>
    </edge>
    <edge id=":1039214349_0" function="internal">
        <lane id=":1039214349_0_0" index="0" disallow="tram rail_urban rail rail_electric rail_fast ship" speed="16.66" length="8.64" shape="1688.28,573.97 1690.28,574.95 1691.71,575.52 1693.20,575.84 1695.42,576.07"/>
        <lane id=":1039214349_0_1" index="1" disallow="tram rail_urban rail rail_electric rail_fast ship" speed="16.66" length="8.64" shape="1686.85,576.83 1689.46,578.08 1691.33,578.74 1693.30,579.08 1696.18,579.35"/>
    </edge>
    <edge id=":1039214349_2" function="internal">
        <lane id=":1039214349_2_0" index="0" disallow="tram rail_urban rail rail_electric rail_fast ship" speed="9.83" length="4.23" shape="1689.49,578.71 1691.11,577.51 1692.26,576.62 1693.51,576.12 1695.42,576.07"/>
        <lane id=":1039214349_2_1" index="1" disallow="tram rail_urban rail rail_electric rail_fast ship" speed="5.32" length="4.23" shape="1694.51,579.27 1694.95,579.08 1695.29,579.11 1695.66,579.25 1696.18,579.35"/>
    </edge>
    <edge id=":1039214369_0" function="internal">
        <lane id=":1039214369_0_0" index="0" disallow="tram rail_urban rail rail_electric rail_fast ship" speed="14.07" length="9.16" shape="1551.52,493.39 1554.03,492.62 1555.55,491.57 1556.87,490.14 1558.80,488.20"/>
        <lane id=":1039214369_0_1" index="1" disallow="tram rail_urban rail rail_electric rail_fast ship" speed="14.74" length="10.06" shape="1551.52,493.39 1554.50,492.99 1556.65,492.84 1558.59,492.26 1560.93,490.59"/>
    </edge>
    <edge id=":1039214369_2" function="internal">
        <lane id=":1039214369_2_0" index="0" disallow="tram rail_urban rail rail_electric rail_fast ship" speed="18.40" length="10.00" shape="1551.52,493.39 1554.60,492.97 1556.75,493.18 1558.89,493.82 1561.96,494.68"/>
        <lane id=":1039214369_2_1" index="1" disallow="tram rail_urban rail rail_electric rail_fast ship" speed="17.17" length="10.00" shape="1552.17,496.53 1554.85,496.18 1556.71,496.42 1558.56,497.02 1561.23,497.80"/>
    </edge>
    <edge id=":1039214566_0" function="internal">
        <lane id=":1039214566_0_0" index="0" allow="pedestrian delivery bicycle" speed="4.96" length="4.01" shape="1535.27,498.66 1536.01,499.13 1536.88,499.24 1537.85,498.99 1538.95,498.38"/>
    </edge>
    <edge id=":1039214566_1" function="internal">
        <lane id=":1039214566_1_0" index="0" allow="pedestrian delivery bicycle" speed="4.87" length="3.98" shape="1532.86,504.63 1533.46,503.51 1533.69,502.53 1533.57,501.69 1533.08,500.99"/>
    </edge>
    <edge id=":1039214566_2" function="internal">
        <lane id=":1039214566_2_0" index="0" disallow="tram rail_urban rail rail_electric rail_fast ship" speed="19.36" length="8.19" shape="1532.86,504.63 1534.31,502.46 1535.45,501.06 1536.81,499.88 1538.95,498.38"/>
        <lane id=":1039214566_2_1" index="1" disallow="tram rail_urban rail rail_electric rail_fast ship" speed="17.93" length="8.19" shape="1535.54,506.38 1536.79,504.52 1537.76,503.32 1538.93,502.31 1540.75,501.02"/>
    </edge>
    <edge id=":1039214614_0" function="internal">
        <lane id=":1039214614_0_0" index="0" disallow="tram rail_urban rail rail_electric rail_fast ship" speed="13.48" length="10.21" shape="1577.02,497.37 1576.61,500.13 1576.25,502.09 1576.34,503.97 1577.30,506.47"/>
        <lane id=":1039214614_0_1" index="1" disallow="tram rail_urban rail rail_electric rail_fast ship" speed="14.65" length="10.21" shape="1573.83,497.11 1573.38,500.39 1573.05,502.72 1573.26,504.94 1574.44,507.90"/>
    </edge>
    <edge id=":1039214614_2" function="internal">
        <lane id=":1039214614_2_0" index="0" disallow="tram rail_urban rail rail_electric rail_fast ship" speed="21.48" length="10.22" shape="1569.93,498.71 1572.45,500.73 1574.23,502.11 1575.71,503.73 1577.30,506.47"/>
        <lane id=":1039214614_2_1" index="1" disallow="tram rail_urban rail rail_electric rail_fast ship" speed="20.22" length="10.22" shape="1567.83,501.13 1570.08,502.90 1571.68,504.09 1573.02,505.50 1574.44,507.90"/>
    </edge>
    <edge id=":1039214709_0" function="internal">
        <lane id=":1039214709_0_0" index="0" disallow="tram rail_urban rail rail_electric rail_fast ship" speed="11.72" length="8.41" shape="1558.69,544.94 1556.49,545.90 1555.25,547.04 1554.28,548.56 1552.87,550.65"/>
        <lane id=":1039214709_0_1" index="1" disallow="tram rail_urban rail rail_electric rail_fast ship" speed="12.42" length="9.47" shape="1558.69,544.94 1555.93,545.60 1553.92,545.97 1552.20,546.77 1550.33,548.70"/>
    </edge>
    <edge id=":1039214709_2" function="internal">
        <lane id=":1039214709_2_0" index="0" disallow="tram rail_urban rail rail_electric rail_fast ship" speed="17.16" length="9.42" shape="1558.69,544.94 1555.82,545.64 1553.77,545.67 1551.69,545.29 1548.72,544.73"/>
        <lane id=":1039214709_2_1" index="1" disallow="tram rail_urban rail rail_electric rail_fast ship" speed="15.90" length="9.42" shape="1557.73,541.89 1555.27,542.47 1553.52,542.45 1551.74,542.06 1549.19,541.57"/>
    </edge>
    <edge id=":1039214757_0" function="internal">
        <lane id=":1039214757_0_0" index="0" disallow="tram rail_urban rail rail_electric rail_fast ship" speed="10.74" length="8.71" shape="1580.48,516.10 1581.17,518.45 1582.25,519.82 1583.79,520.93 1585.87,522.50"/>
        <lane id=":1039214757_0_1" index="1" disallow="tram rail_urban rail rail_electric rail_fast ship" speed="11.36" length="9.79" shape="1580.48,516.10 1580.82,519.00 1581.08,521.10 1581.87,522.90 1583.78,524.92"/>
    </edge>
    <edge id=":1039214757_2" function="internal">
        <lane id=":1039214757_2_0" index="0" disallow="tram rail_urban rail rail_electric rail_fast ship" speed="27.78" length="9.89" shape="1580.48,516.10 1580.84,519.13 1580.75,521.24 1580.35,523.35 1579.78,526.39"/>
        <lane id=":1039214757_2_1" index="1" disallow="tram rail_urban rail rail_electric rail_fast ship" speed="27.78" length="9.89" shape="1577.32,516.62 1577.64,519.36 1577.53,521.25 1577.15,523.15 1576.62,525.88"/>
    </edge>
    <edge id=":1039214781_0" function="internal">
        <lane id=":1039214781_0_0" index="0" disallow="tram rail_urban rail rail_electric rail_fast ship" speed="10.51" length="8.64" shape="1457.51,679.40 1459.91,678.97 1461.36,678.04 1462.60,676.61 1464.34,674.69"/>
        <lane id=":1039214781_0_1" index="1" disallow="tram rail_urban rail rail_electric rail_fast ship" speed="11.14" length="9.75" shape="1457.51,679.40 1460.43,679.37 1462.53,679.31 1464.39,678.70 1466.57,676.99"/>
    </edge>
    <edge id=":1039214781_2" function="internal">
        <lane id=":1039214781_2_0" index="0" disallow="tram rail_urban rail rail_electric rail_fast ship" speed="27.78" length="9.86" shape="1457.51,679.40 1460.56,679.36 1462.64,679.65 1464.69,680.25 1467.65,681.11"/>
        <lane id=":1039214781_2_1" index="1" disallow="tram rail_urban rail rail_electric rail_fast ship" speed="27.78" length="9.86" shape="1457.70,682.60 1460.45,682.57 1462.33,682.86 1464.17,683.42 1466.84,684.20"/>
    </edge>
    <edge id=":1039214847_0" function="internal">
        <lane id=":1039214847_0_0" index="0" disallow="tram rail_urban rail rail_electric rail_fast ship" speed="19.82" length="9.29" shape="1541.88,542.16 1539.32,540.67 1537.55,539.61 1536.03,538.30 1534.24,536.01"/>
        <lane id=":1039214847_0_1" index="1" disallow="tram rail_urban rail rail_electric rail_fast ship" speed="18.50" length="9.29" shape="1543.57,539.44 1541.34,538.16 1539.77,537.27 1538.43,536.15 1536.86,534.17"/>
    </edge>
    <edge id=":1039214847_2" function="internal">
        <lane id=":1039214847_2_0" index="0" disallow="tram rail_urban rail rail_electric rail_fast ship" speed="10.18" length="9.20" shape="1534.83,543.73 1535.21,541.34 1535.51,539.61 1535.32,538.01 1534.24,536.01"/>
        <lane id=":1039214847_2_1" index="1" disallow="tram rail_urban rail rail_electric rail_fast ship" speed="11.48" length="9.20" shape="1538.02,544.05 1538.44,540.99 1538.69,538.78 1538.31,536.74 1536.86,534.17"/>
    </edge>
    <edge id=":10591385527_0" function="internal">
        <lane id=":10591385527_0_0" index="0" disallow="tram rail_urban rail rail_electric rail_fast ship" speed="11.31" length="3.43" shape="1724.77,810.86 1725.74,811.11 1726.36,811.42 1726.93,811.84 1727.75,812.45"/>
    </edge>
    <edge id=":10727813856_0" function="internal">
        <lane id=":10727813856_0_0" index="0" allow="pedestrian delivery bicycle" speed="5.08" length="5.01" shape="1989.06,296.30 1988.60,295.02 1987.84,294.18 1986.77,293.80 1985.39,293.85"/>
    </edge>
    <edge id=":10727813856_1" function="internal">
        <lane id=":10727813856_1_0" index="0" allow="pedestrian delivery bicycle" speed="5.56" length="6.18" shape="1989.06,296.30 1987.86,290.23"/>
    </edge>
    <edge id=":10727813857_0" function="internal">
        <lane id=":10727813857_0_0" index="0" allow="pedestrian delivery bicycle" speed="5.56" length="6.31" shape="1876.42,313.92 1875.14,314.45 1874.35,315.49 1874.04,317.02 1874.23,319.07"/>
    </edge>
    <edge id=":10727813857_1" function="internal">
        <lane id=":10727813857_1_0" index="0" allow="pedestrian delivery bicycle" speed="5.56" length="6.42" shape="1876.42,313.92 1874.64,314.50 1873.53,315.26 1872.43,316.00 1870.64,316.55"/>
    </edge>
    <edge id=":10727813857_2" function="internal">
        <lane id=":10727813857_2_0" index="0" allow="pedestrian delivery bicycle" speed="5.56" length="7.69" shape="1870.12,313.39 1871.49,313.56 1872.62,314.57 1873.54,316.40 1874.23,319.07"/>
    </edge>
    <edge id=":10727813857_3" function="internal">
        <lane id=":10727813857_3_0" index="0" allow="pedestrian delivery bicycle" speed="3.65" length="4.67" shape="1870.12,313.39 1871.43,313.99 1871.96,314.71 1871.69,315.57 1870.64,316.55"/>
    </edge>
    <edge id=":10727813858_0" function="internal">
        <lane id=":10727813858_0_0" index="0" allow="pedestrian delivery bicycle" speed="5.56" length="9.50" shape="1867.00,317.15 1864.20,317.36 1862.26,317.13 1860.32,316.94 1857.54,317.23"/>
    </edge>
    <edge id=":10727813858_1" function="internal">
        <lane id=":10727813858_1_0" index="0" allow="pedestrian delivery bicycle" speed="5.56" length="10.16" shape="1867.00,317.15 1864.21,317.21 1862.08,316.36 1860.59,314.61 1859.76,311.95"/>
    </edge>
    <edge id=":10727813858_2" function="internal">
        <lane id=":10727813858_2_0" index="0" allow="pedestrian delivery bicycle" speed="3.65" length="4.67" shape="1867.00,317.15 1865.68,316.55 1865.16,315.83 1865.42,314.97 1866.48,313.99"/>
    </edge>
    <edge id=":10727813858_3" function="internal">
        <lane id=":10727813858_3_0" index="0" allow="pedestrian delivery bicycle" speed="5.04" length="5.00" shape="1862.91,311.43 1863.33,312.74 1864.06,313.60 1865.11,314.02 1866.48,313.99"/>
    </edge>
    <edge id=":10727813858_4" function="internal">
        <lane id=":10727813858_4_0" index="0" allow="pedestrian delivery bicycle" speed="5.56" length="8.90" shape="1862.91,311.43 1862.86,313.52 1861.95,315.18 1860.17,316.42 1857.54,317.23"/>
    </edge>
    <edge id=":10727813858_5" function="internal">
        <lane id=":10727813858_5_0" index="0" allow="pedestrian delivery bicycle" speed="3.65" length="4.67" shape="1862.91,311.43 1862.32,312.75 1861.60,313.27 1860.74,313.01 1859.76,311.95"/>
    </edge>
    <edge id=":10743243012_0" function="internal">
        <lane id=":10743243012_0_0" index="0" allow="pedestrian delivery bicycle" speed="5.56" length="5.01" shape="2678.93,469.81 2673.96,469.18"/>
    </edge>
    <edge id=":10743243012_1" function="internal">
        <lane id=":10743243012_1_0" index="0" allow="pedestrian delivery bicycle" speed="3.65" length="1.44" shape="2678.93,469.81 2677.84,468.87"/>
    </edge>
    <edge id=":10743243012_4" function="internal">
        <lane id=":10743243012_4_0" index="0" allow="pedestrian delivery bicycle" speed="3.65" length="3.23" shape="2677.84,468.87 2677.54,468.02 2678.04,467.28 2679.33,466.63"/>
    </edge>
    <edge id=":10743243012_2" function="internal">
        <lane id=":10743243012_2_0" index="0" allow="pedestrian delivery bicycle" speed="5.56" length="5.00" shape="2674.36,466.01 2679.33,466.63"/>
    </edge>
    <edge id=":10743243012_3" function="internal">
        <lane id=":10743243012_3_0" index="0" allow="pedestrian delivery bicycle" speed="3.65" length="1.44" shape="2674.36,466.01 2675.45,466.95"/>
    </edge>
    <edge id=":10743243012_5" function="internal">
        <lane id=":10743243012_5_0" index="0" allow="pedestrian delivery bicycle" speed="3.65" length="3.23" shape="2675.45,466.95 2675.75,467.79 2675.25,468.54 2673.96,469.18"/>
    </edge>
    <edge id=":10951280705_0" function="internal">
        <lane id=":10951280705_0_0" index="0" allow="bicycle" speed="5.56" length="5.15" width="2.00" shape="2739.90,417.07 2734.82,416.25"/>
    </edge>
    <edge id=":10951280705_1" function="internal">
        <lane id=":10951280705_1_0" index="0" allow="bicycle" speed="2.89" length="1.26" width="2.00" shape="2739.90,417.07 2739.24,416.45 2739.13,416.11"/>
    </edge>
    <edge id=":10951280705_4" function="internal">
        <lane id=":10951280705_4_0" index="0" allow="bicycle" speed="2.89" length="1.66" width="2.00" shape="2739.13,416.11 2739.08,415.92 2739.40,415.47 2740.23,415.10"/>
    </edge>
    <edge id=":10951280705_2" function="internal">
        <lane id=":10951280705_2_0" index="0" allow="bicycle" speed="5.56" length="5.17" width="2.00" shape="2735.12,414.28 2740.23,415.10"/>
    </edge>
    <edge id=":10951280705_3" function="internal">
        <lane id=":10951280705_3_0" index="0" allow="bicycle" speed="2.89" length="1.28" width="2.00" shape="2735.12,414.28 2735.79,414.89 2735.90,415.25"/>
    </edge>
    <edge id=":10951280705_5" function="internal">
        <lane id=":10951280705_5_0" index="0" allow="bicycle" speed="2.89" length="1.64" width="2.00" shape="2735.90,415.25 2735.96,415.42 2735.63,415.87 2734.82,416.25"/>
    </edge>
    <edge id=":11113796822_0" function="internal">
        <lane id=":11113796822_0_0" index="0" allow="pedestrian delivery bicycle" speed="5.07" length="5.03" shape="2138.40,376.26 2137.96,374.96 2137.21,374.12 2136.13,373.72 2134.75,373.77"/>
    </edge>
    <edge id=":11113796822_1" function="internal">
        <lane id=":11113796822_1_0" index="0" allow="pedestrian delivery bicycle" speed="5.56" length="9.40" shape="2138.40,376.26 2136.68,367.02"/>
    </edge>
    <edge id=":11113796822_2" function="internal">
        <lane id=":11113796822_2_0" index="0" allow="pedestrian delivery bicycle" speed="3.65" length="4.67" shape="2138.40,376.26 2138.97,374.93 2139.68,374.39 2140.54,374.64 2141.55,375.67"/>
    </edge>
    <edge id=":11113796822_3" function="internal">
        <lane id=":11113796822_3_0" index="0" allow="pedestrian delivery bicycle" speed="5.56" length="9.40" shape="2139.83,366.43 2141.55,375.67"/>
    </edge>
    <edge id=":11113796822_4" function="internal">
        <lane id=":11113796822_4_0" index="0" allow="pedestrian delivery bicycle" speed="5.56" length="10.20" shape="2139.83,366.43 2139.95,369.23 2139.14,371.38 2137.41,372.90 2134.75,373.77"/>
    </edge>
    <edge id=":11113796822_5" function="internal">
        <lane id=":11113796822_5_0" index="0" allow="pedestrian delivery bicycle" speed="3.65" length="4.67" shape="2139.83,366.43 2139.26,367.76 2138.55,368.30 2137.69,368.05 2136.68,367.02"/>
    </edge>
    <edge id=":11113796822_6" function="internal">
        <lane id=":11113796822_6_0" index="0" allow="pedestrian delivery bicycle" speed="5.03" length="5.01" shape="2134.19,370.62 2135.49,370.19 2136.34,369.45 2136.74,368.39 2136.68,367.02"/>
    </edge>
    <edge id=":11113796822_7" function="internal">
        <lane id=":11113796822_7_0" index="0" allow="pedestrian delivery bicycle" speed="5.56" length="10.16" shape="2134.19,370.62 2136.98,370.52 2139.14,371.33 2140.66,373.05 2141.55,375.67"/>
    </edge>
    <edge id=":11113796822_8" function="internal">
        <lane id=":11113796822_8_0" index="0" allow="pedestrian delivery bicycle" speed="3.65" length="4.67" shape="2134.19,370.62 2135.51,371.20 2136.04,371.92 2135.79,372.77 2134.75,373.77"/>
    </edge>
    <edge id=":11113796823_0" function="internal">
        <lane id=":11113796823_0_0" index="0" allow="pedestrian delivery bicycle" speed="5.56" length="9.40" shape="1990.51,402.49 1988.98,393.21"/>
    </edge>
    <edge id=":11113796823_1" function="internal">
        <lane id=":11113796823_1_0" index="0" allow="pedestrian delivery bicycle" speed="5.56" length="10.17" shape="1990.51,402.49 1990.45,399.73 1991.30,397.59 1993.06,396.09 1995.72,395.23"/>
    </edge>
    <edge id=":11113796823_2" function="internal">
        <lane id=":11113796823_2_0" index="0" allow="pedestrian delivery bicycle" speed="3.65" length="4.67" shape="1990.51,402.49 1991.10,401.18 1991.83,400.65 1992.68,400.91 1993.67,401.97"/>
    </edge>
    <edge id=":11113796823_3" function="internal">
        <lane id=":11113796823_3_0" index="0" allow="pedestrian delivery bicycle" speed="5.08" length="5.05" shape="1996.28,398.38 1994.95,398.81 1994.07,399.55 1993.64,400.60 1993.67,401.97"/>
    </edge>
    <edge id=":11113796823_4" function="internal">
        <lane id=":11113796823_4_0" index="0" allow="pedestrian delivery bicycle" speed="5.56" length="10.22" shape="1996.28,398.38 1993.47,398.47 1991.32,397.64 1989.83,395.89 1988.98,393.21"/>
    </edge>
    <edge id=":11113796823_5" function="internal">
        <lane id=":11113796823_5_0" index="0" allow="pedestrian delivery bicycle" speed="3.65" length="4.67" shape="1996.28,398.38 1994.96,397.80 1994.42,397.08 1994.68,396.22 1995.72,395.23"/>
    </edge>
    <edge id=":11113796823_6" function="internal">
        <lane id=":11113796823_6_0" index="0" allow="pedestrian delivery bicycle" speed="5.03" length="5.02" shape="1992.14,392.69 1992.55,394.00 1993.29,394.86 1994.34,395.27 1995.72,395.23"/>